/*--------------------------------*- C++ -*----------------------------------*/
FoamFile { version 2.0; format ascii; class dictionary; object snappyHexMeshDict; }
// * * * * * * * * * * * * * * * * * * * * * * * * * * * * * * * * * * * * * * //
castellatedMesh true;
snap            true;
addLayers       false;        // gate run: wall-function (high-Re) RANS, no prism layers

geometry
{
    disc.stl { type triSurfaceMesh; name disc; }

    refineBox
    {
        type searchableBox;
        min  (-6 -8 -8);
        max  (18  8  8);
    }
}

castellatedMeshControls
{
    maxLocalCells       2000000;
    maxGlobalCells      4000000;
    minRefinementCells  10;
    nCellsBetweenLevels 3;
    maxLoadUnbalance    0.10;
    resolveFeatureAngle 30;
    allowFreeStandingZoneFaces true;

    features ();

    refinementSurfaces
    {
        disc { level (2 3); }     // surface refinement levels
    }

    refinementRegions
    {
        refineBox { mode inside; levels ((1E15 1)); }
    }

    locationInMesh (-20 0.123 0.456);   // a point in the FLOW (outside the disc)
}

snapControls
{
    nSmoothPatch    3;
    tolerance       2.0;
    nSolveIter      30;
    nRelaxIter      5;
    nFeatureSnapIter 10;
    implicitFeatureSnap     false;
    explicitFeatureSnap     true;
    multiRegionFeatureSnap  false;
}

addLayersControls
{
    relativeSizes       true;
    layers {}
    expansionRatio      1.2;
    finalLayerThickness 0.4;
    minThickness        0.1;
    nGrow               0;
    featureAngle        60;
    nRelaxIter          3;
    nSmoothSurfaceNormals 1;
    nSmoothNormals      3;
    nSmoothThickness    10;
    maxFaceThicknessRatio 0.5;
    maxThicknessToMedialRatio 0.3;
    minMedialAxisAngle  90;
    nBufferCellsNoExtrude 0;
    nLayerIter          50;
}

meshQualityControls
{
    maxNonOrtho         65;
    maxBoundarySkewness 20;
    maxInternalSkewness 4;
    maxConcave          80;
    minVol              1e-13;
    minTetQuality       1e-15;
    minArea             -1;
    minTwist            0.02;
    minDeterminant      0.001;
    minFaceWeight       0.05;
    minVolRatio         0.01;
    minTriangleTwist    -1;
    nSmoothScale        4;
    errorReduction      0.75;
}

mergeTolerance 1e-6;
// ************************************************************************* //
